pyensys/tests/matpower/A_BJ_35_v2.m
% Distribution_Network_KPC_10
function mpc = A_BJ_35()


%% MATPOWER Case Format : Version 2
mpc.version = '2';

%%-----  Power Flow Data  -----%%
%% system MVA base
mpc.baseMVA = 100;

%% bus data													
%	bus_i	type	Pd	Qd	Gs	Bs	area	Vm	Va	baseKV	zone	Vmax	Vmin
mpc.bus = [													
1	3	0	0	0	0	1	1	0	110	1	1.1	0.9;
2	1	1	0	0	0	1	1	0	10	1	1.1	0.9;
3	1	0	0	0	0	1	1	0	35	1	1.1	0.9;
4	1	0	0	0	0	1	1	0	35	1	1.1	0.9;
5	1	1	0.2	0	0	1	1	0	10	1	1.1	0.9;
6	1	0.75	0.188	0	0	1	1	0	35	1	1.1	0.9;
7	1	0	0	0	0	1	1	0	35	1	1.1	0.9;
8	1	2	0.2	0	0	1	1	0	10	1	1.1	0.9;
9	1	1	0	0	0	1	1	0	35	1	1.1	0.9;
10	1	0	0	0	0	1	1	0	35	1	1.1	0.9;
11	1	3	0.5	0	0	1	1	0	10	1	1.1	0.9;
12	1	0.2	0.2	0	0	1	1	0	35	1	1.1	0.9;
13	3	0	0	0	0	1	1	0	110	1	1.1	0.9;
14	1	0	0	0	0	1	1	0	35	1	1.1	0.9;
15	1	4.5	0.4	0	0	1	1	0	10	1	1.1	0.9;
16	1	0.6	0.291	0	0	1	1	0	35	1	1.1	0.9;
17	1	4	0.5	0	0	1	1	0	35	1	1.1	0.9;
18	3	0	0	0	0	1	1	0	110	1	1.1	0.9;
19	1	6.5	3	0	0	1	1	0	10	1	1.1	0.9;
20	1	0	0	0	0	1	1	0	35	1	1.1	0.9;
21	1	1	-0.2	0	0	1	1	0	35	1	1.1	0.9;
22	1	0.5	0	0	0	1	1	0	35	1	1.1	0.9;
23	1	0.8	0.3	0	0	1	1	0	35	1	1.1	0.9;
24	1	1	0.3	0	0	1	1	0	35	1	1.1	0.9;
26	1	0	0	0	0	1	1	0	35	1	1.1	0.9;
];													

%% branch data														
%	fbus	tbus	r	x	b	rateA (summer)	rateB (spring)	rateC (winter)	tap ratio	shift angle	status	angmin	angmax	step_size	actTap	minTap	maxTap	normalTap	length (km)
mpc.branch = [														
3	4	0.183068735	0.253257143	0.000358342	20.88975	20.88975	20.88975	0	0	1	-360	360;
3	7	0.190710367	0.263828571	0.0003733	20.88975	20.88975	20.88975	0	0	1	-360	360;
4	6	0.18964898	0.129306122	0.010187103	23.31175	23.31175	23.31175	0	0	1	-360	360;
9	3	0.049964082	0.085087347	0.000125453	24.22	24.22	24.22	0	0	1	-360	360;
9	10	0.297257143	0.31557551	0.000378611	13.98705	13.98705	13.98705	0	0	0	-360	360;
12	10	0.138357551	0.094334694	0.007431955	23.31175	23.31175	23.31175	0	0	1	-360	360;
14	12	0.103732245	0.070726531	0.005572037	23.31175	23.31175	23.31175	0	0	1	-360	360;
14	26	0.045746531	0.063285714	8.95452E-05	20.88975	20.88975	20.88975	0	0	1	-360	360;
14	16	0.312129714	0.4318	0.000610969	20.88975	20.88975	20.88975	0	0	1	-360	360;
17	20	0.025130612	0.024171429	0.001717462	21.1925	21.1925	21.1925	0	0	0	-360	360;
17	14	0.044538776	0.030367347	0.002392426	23.31175	23.31175	23.31175	0	0	1	-360	360;
20	23	0.254693551	0.352342857	0.000498542	20.88975	20.88975	20.88975	0	0	1	-360	360;
20	21	0.223652	0.3094	0.000437781	20.88975	20.88975	20.88975	0	0	1	-360	360;
20	26	0.016600816	0.016868571	0.001135487	26.0365	26.0365	26.0365	0	0	1	-360	360;
22	23	0.027082449	0.035918367	0.003395701	23.31175	23.31175	23.31175	0	0	1	-360	360;
22	21	0.05908898	0.078367347	0.007408802	23.31175	23.31175	23.31175	0	0	1	-360	360;
23	24	0.211735184	0.292914286	0.000414455	20.88975	20.88975	20.88975	0	0	1	-360	360;
 1	3	0.0085	0.28	0	40	40	40	1.038095238	0	0	-360	360;
 1	3	0.034	0.56	0	20	20	20	1.038095238	0	1	-360	360;
 3	2	0.05	0.85	0	8	8	8	1	0	1	-360	360;
 3	2	0.02	0.53	0	15	15	15	1	0	0	-360	360;
 4	5	0.155	1.5	0	4	4	4	0.976190476	0	1	-360	360;
 4	5	0.155	1.5	0	4	4	4	0.976190476	0	1	-360	360;
 7	8	0.07875	0.875	0	8	8	8	1	0	0	-360	360;
 7	8	0.155	1.5	0	4	4	4	0.976190476	0	1	-360	360;
10	11	0.07875	0.875	0	8	8	8	0.952380952	0	1	-360	360;
13	14	0.0095	0.275	0	40	40	40	1.038095238	0	1	-360	360;
13	14	0.0095	0.275	0	40	40	40	1.095238095	0	0	-360	360;
14	15	0.07875	0.875	0	8	8	8	0.952380952	0	1	-360	360;
14	15	0.07875	0.875	0	8	8	8	0.952380952	0	1	-360	360;
18	19	0.02	0.55	0	20	20	20	0.519047619	0	0	-360	360;
18	19	0.02	0.55	0	20	20	20	1.038095238	0	1	-360	360;
19	20	0.07875	0.875	0	8	8	8	1	0	0	-360	360;
19	20	0.07875	0.875	0	8	8	8	1	0	1	-360	360;
];

%% generator data
%	bus	Pg	Qg	Qmax	Qmin	Vg	mBase	status	Pmax	Pmin	Pc1	Pc2	Qc1min	Qc1max	Qc2min	Qc2max	ramp_agc	ramp_10	ramp_30	ramp_q	apf	
mpc.gen = [																						
1	0	0	60	-60     1	100	1	60	-60	0	0	0	0	0	0	0	0	0	0	0;
18	0	0	40	-40     1	100	1	40	-40	0	0	0	0	0	0	0	0	0	0	0;
13	0	0	80	-80     1	100	1	80	-80	0	0	0	0	0	0	0	0	0	0	0;
5	1	0	0.5	-0.5	1	100	1	1	0	0	0	0	0	0	0	0	0	0	0	0;
5	1	0	1	-1      1	100	1	2	0	0	0	0	0	0	0	0	0	0	0	0;
8	2	0	1	-1      1	100	1	2	0	0	0	0	0	0	0	0	0	0	0	0;
11	1	0	0.5	-0.5	1	100	1	1	0	0	0	0	0	0	0	0	0	0	0	0;
19	1	0	0.5	-0.5	1	100	1	1	0	0	0	0	0	0	0	0	0	0	0	0;
15	1	0	0.5	-0.5	1	100	1	1	0	0	0	0	0	0	0	0	0	0	0	0;
22	10	0	4	-4      1	100	1	10	0	0	0	0	0	0	0	0	0	0	0	0;
];																						

mpc.gencost = [
2	0	0	2	0	1	0	;
2	0	0	2	0	4	0	;
2	0	0	2	0	6	0	;
2	0	0	2	0	10	0	;
2	0	0	2	0	1	0	;
2	0	0	2	0	4	0	;
2	0	0	2	0	6	0	;
2	0	0	2	0	10	0	;
2	0	0	2	0	6	0	;
2	0	0	2	0	10	0	;
]; % no cost data was provided. These values need to be replaced later.	